data_MOF-808_cell
_audit_creation_date              2019-01-19
_audit_creation_method            'Materials Studio'
_symmetry_space_group_name_H-M    'P1'
_symmetry_Int_Tables_number       1
_symmetry_cell_setting            triclinic
loop_
_symmetry_equiv_pos_as_xyz
  x,y,z
_cell_length_a                   25.145
_cell_length_b                   25.082
_cell_length_c                   24.949
_cell_angle_alpha                60.32
_cell_angle_beta                 60.08
_cell_angle_gamma                58.92
loop_
_atom_site_label
_atom_site_type_symbol
_atom_site_fract_x
_atom_site_fract_y
_atom_site_fract_z
_atom_site_occupancy
H7   H    0.91362   0.41313   0.51861   1.0000
H8   H    0.03702   0.29125   0.51285   1.0000
H9   H    0.75034   0.12823   0.80056   1.0000
H10   H    0.74825   0.12539   0.68326   1.0000
H11   H    0.73992   0.42004   0.68956   1.0000
H12   H    0.03729   0.11761   0.51529   1.0000
H13   H    0.74538   0.30117   0.80388   1.0000
H14   H    0.91738   0.12587   0.50816   1.0000
H15   H    0.74063   0.41488   0.51895   1.0000
H16   H    0.04036   0.12035   0.6856   1.0000
H17   H    0.92189   0.12818   0.80071   1.0000
H18   H    0.74159   0.29976   0.51417   1.0000
H19   H    0.06214   0.3012   0.99978   1.0000
H20   H    0.92527   0.43992   0.99763   1.0000
H21   H    0.21784   0.6123   0.7001   1.0000
H22   H    0.22625   0.60658   0.83483   1.0000
H23   H    0.23536   0.29845   0.82805   1.0000
H24   H    0.91645   0.61373   0.00308   1.0000
H25   H    0.2383   0.43272   0.69542   1.0000
H26   H    0.05113   0.61182   0.00366   1.0000
H27   H    0.23242   0.30556   0.99858   1.0000
H28   H    0.92367   0.61257   0.82678   1.0000
H29   H    0.0565   0.5992   0.69395   1.0000
H30   H    0.22553   0.43673   0.00844   1.0000
C31   C    0.86719   0.41428   0.64128   1.0000
C32   C    0.03466   0.2424   0.43924   1.0000
C33   C    0.67191   0.25212   0.80295   1.0000
C34   C    0.87203   0.05024   0.63332   1.0000
C35   C    0.8304   0.41685   0.60745   1.0000
C36   C    0.03744   0.20765   0.50704   1.0000
C37   C    0.74045   0.21772   0.80369   1.0000
C38   C    0.83614   0.11858   0.59881   1.0000
C39   C    0.86279   0.41492   0.54336   1.0000
C40   C    0.03776   0.24073   0.53843   1.0000
C41   C    0.77416   0.15337   0.80212   1.0000
C42   C    0.77161   0.15098   0.63274   1.0000
C43   C    0.66497   0.41817   0.64133   1.0000
C44   C    0.03771   0.0437   0.6386   1.0000
C45   C    0.87159   0.25157   0.80178   1.0000
C46   C    0.86664   0.25113   0.4364   1.0000
C47   C    0.73328   0.41843   0.60716   1.0000
C48   C    0.03931   0.11164   0.60389   1.0000
C49   C    0.83674   0.21747   0.80344   1.0000
C50   C    0.83247   0.21615   0.50392   1.0000
C51   C    0.86582   0.41141   0.44348   1.0000
C52   C    0.03705   0.24548   0.6365   1.0000
C53   C    0.87398   0.05302   0.79861   1.0000
C54   C    0.67023   0.2514   0.63908   1.0000
C55   C    0.83048   0.41482   0.51119   1.0000
C56   C    0.03879   0.20931   0.60257   1.0000
C57   C    0.83912   0.12096   0.80159   1.0000
C58   C    0.73771   0.21594   0.60223   1.0000
C59   C    0.76553   0.41875   0.63938   1.0000
C60   C    0.03811   0.14328   0.53965   1.0000
C61   C    0.77168   0.25019   0.80403   1.0000
C62   C    0.86669   0.15094   0.53452   1.0000
C63   C    0.76583   0.41626   0.54326   1.0000
C64   C    0.03972   0.14466   0.63532   1.0000
C65   C    0.87065   0.15284   0.80217   1.0000
C66   C    0.76814   0.2486   0.5377   1.0000
C67   C    0.10882   0.30388   0.87535   1.0000
C68   C    0.92426   0.48772   0.07469   1.0000
C69   C    0.30171   0.48614   0.70401   1.0000
C70   C    0.09953   0.68232   0.87803   1.0000
C71   C    0.14554   0.29863   0.91084   1.0000
C72   C    0.91948   0.5238   0.00766   1.0000
C73   C    0.23573   0.51989   0.69605   1.0000
C74   C    0.13575   0.6165   0.91601   1.0000
C75   C    0.11273   0.30002   0.97512   1.0000
C76   C    0.92243   0.49109   0.97376   1.0000
C77   C    0.1983   0.58443   0.69659   1.0000
C78   C    0.20116   0.5829   0.8855   1.0000
C79   C    0.30723   0.30597   0.87549   1.0000
C80   C    0.92149   0.68785   0.87862   1.0000
C81   C    0.11244   0.47459   0.69708   1.0000
C82   C    0.09773   0.48699   0.07884   1.0000
C83   C    0.24114   0.30006   0.91088   1.0000
C84   C    0.91819   0.62086   0.91215   1.0000
C85   C    0.14506   0.513   0.69244   1.0000
C86   C    0.13517   0.52154   0.01352   1.0000
C87   C    0.10647   0.30978   0.07303   1.0000
C88   C    0.93322   0.48532   0.87149   1.0000
C89   C    0.09404   0.68008   0.70269   1.0000
C90   C    0.30054   0.48077   0.88433   1.0000
C91   C    0.14413   0.3018   0.00708   1.0000
C92   C    0.92395   0.52299   0.90874   1.0000
C93   C    0.13384   0.61351   0.69532   1.0000
C94   C    0.23339   0.51854   0.91909   1.0000
C95   C    0.20989   0.29837   0.87872   1.0000
C96   C    0.91726   0.5887   0.97698   1.0000
C97   C    0.20911   0.484   0.6939   1.0000
C98   C    0.10268   0.58609   0.98015   1.0000
C99   C    0.20818   0.3019   0.97493   1.0000
C100   C    0.9215   0.58808   0.87793   1.0000
C101   C    0.1073   0.57796   0.69312   1.0000
C102   C    0.20046   0.48779   0.98313   1.0000
O103   O    0.83549   0.41886   0.69913   1.0000
O104   O    0.03586   0.21115   0.41083   1.0000
O105   O    0.64328   0.31061   0.80461   1.0000
O106   O    0.93008   0.02019   0.60179   1.0000
O107   O    0.12925   0.7027   0.81711   1.0000
O108   O    0.32397   0.51826   0.71006   1.0000
O109   O    0.93227   0.42696   0.09753   1.0000
O110   O    0.04824   0.31326   0.90459   1.0000
O111   O    0.02895   0.83068   0.68814   1.0000
O112   O    0.95926   0.334   0.72368   1.0000
O113   O    0.95442   0.33387   0.34507   1.0000
O114   O    0.5737   0.33845   0.72749   1.0000
O115   O    0.95671   0.95339   0.72339   1.0000
O116   O    0.63681   0.42112   0.60877   1.0000
O117   O    0.04208   0.01465   0.69639   1.0000
O118   O    0.93086   0.2186   0.80037   1.0000
O119   O    0.83321   0.31005   0.40873   1.0000
O120   O    0.92503   0.40867   0.41776   1.0000
O121   O    0.03759   0.30368   0.60442   1.0000
O122   O    0.84128   0.02896   0.797   1.0000
O123   O    0.64353   0.21826   0.69712   1.0000
O124   O    0.32479   0.41998   0.91303   1.0000
O125   O    0.03333   0.7065   0.7065   1.0000
O126   O    0.94259   0.51358   0.81037   1.0000
O127   O    0.13671   0.31337   0.09988   1.0000
O128   O    0.03679   0.51746   0.10114   1.0000
O129   O    0.14486   0.41353   0.70137   1.0000
O130   O    0.92893   0.71095   0.90849   1.0000
O131   O    0.33118   0.31372   0.81462   1.0000
O132   O    0.03466   0.83285   0.80837   1.0000
O133   O    0.90968   0.84147   0.80749   1.0000
O134   O    0.14055   0.302   0.81648   1.0000
O135   O    0.92306   0.51942   0.10271   1.0000
O136   O    0.32983   0.42632   0.70718   1.0000
O137   O    0.04067   0.71158   0.90898   1.0000
O138   O    0.84108   0.02669   0.69312   1.0000
O139   O    0.64692   0.22032   0.80081   1.0000
O140   O    0.03147   0.30186   0.41434   1.0000
O141   O    0.9272   0.4069   0.61072   1.0000
O142   O    0.91932   0.90709   0.84928   1.0000
O143   O    0.03012   0.39982   0.79519   1.0000
O144   O    0.02087   0.40896   0.13693   1.0000
O145   O    0.36507   0.4036   0.80208   1.0000
O146   O    0.01749   0.7456   0.80012   1.0000
O147   O    0.33329   0.30578   0.9083   1.0000
O148   O    0.91988   0.71648   0.8197   1.0000
O149   O    0.05296   0.50517   0.69971   1.0000
O150   O    0.12965   0.42713   0.10627   1.0000
O151   O    0.0469   0.31543   0.09695   1.0000
O152   O    0.9338   0.42668   0.90337   1.0000
O153   O    0.12381   0.70468   0.70767   1.0000
O154   O    0.32778   0.51252   0.82565   1.0000
O155   O    0.64424   0.31184   0.61087   1.0000
O156   O    0.93343   0.02402   0.79802   1.0000
O157   O    0.03519   0.21513   0.69586   1.0000
O158   O    0.83438   0.41144   0.41595   1.0000
O159   O    0.92665   0.22035   0.41146   1.0000
O160   O    0.83967   0.31103   0.80159   1.0000
O161   O    0.03131   0.01953   0.60901   1.0000
O162   O    0.6394   0.41505   0.70113   1.0000
O163   O    0.91388   0.90305   0.68922   1.0000
O164   O    0.07931   0.89496   0.68746   1.0000
V165   V    0.00937   0.93187   0.63503   1.0000
V166   V    0.01099   0.93245   0.77362   1.0000
V167   V    0.86654   0.9431   0.77581   1.0000
V168   V    0.95731   0.79623   0.87837   1.0000
V169   V    0.95346   0.79623   0.74072   1.0000
V170   V    0.09749   0.78732   0.73603   1.0000
O172   O    0.17638   0.80095   0.74325   1.0000
O173   O    0.18677   0.78431   0.65334   1.0000
S174   S    0.21957   0.80968   0.6694   1.0000
O175   O    0.20377   0.88135   0.63479   1.0000
O176   O    0.28804   0.77013   0.66125   1.0000
O177   O    0.68105   0.9909   0.84318   1.0000
S178   S    0.73839   0.93107   0.84479   1.0000
O179   O    0.78477   0.93384   0.86768   1.0000
O180   O    0.78681   0.93249   0.77279   1.0000
O181   O    0.72944   0.86836   0.87974   1.0000
O182   O    0.11504   0.9059   0.7702   1.0000
O184   O    0.94434   0.8054   0.96014   1.0000
H185   H    0.97973   0.7792   0.97888   1.0000
H186   H    0.14518   0.8609   0.76063   1.0000
O187   O    0.01152   0.9361   0.86471   1.0000
H188   H    0.05836   0.92552   0.85509   1.0000
O189   O    0.84808   0.82152   0.94003   1.0000
H190   H    0.81721   0.86351   0.91806   1.0000
O191   O    0.84674   0.82162   0.75106   1.0000
H192   H    0.82957   0.78917   0.79051   1.0000
O193   O    0.95237   0.79474   0.64699   1.0000
H195   H    0.90837   0.79877   0.65441   1.0000
O196   O    0.09077   0.91918   0.55786   1.0000
O197   O    0.99803   0.90498   0.56435   1.0000
H198   H    0.99062   0.86336   0.58373   1.0000
H199   H    0.04541   0.89684   0.53848   1.0000
H200   H    0.81764   0.86572   0.76083   1.0000
H201   H    0.98767   0.98069   0.86763   1.0000
H202   H    0.13301   0.91999   0.54824   1.0000
H203   H    0.84882   0.82708   0.97591   1.0000
O204   O    0.45618   0.50332   0.88614   1.0000
H205   H    0.44062   0.3195   0.98098   1.0000
O206   O    0.43186   0.36195   0.94647   1.0000
S207   S    0.52435   0.4685   0.85509   1.0000
O208   O    0.5755   0.47509   0.85963   1.0000
H209   H    0.47094   0.37614   0.92499   1.0000
O210   O    0.53694   0.39358   0.87593   1.0000
O211   O    0.42456   0.2592   0.96126   1.0000
V213   V    0.41425   0.33791   0.88067   1.0000
H214   H    0.4045   0.22832   0.97429   1.0000
O215   O    0.5253   0.29682   0.85333   1.0000
H216   H    0.6135   0.13349   0.86627   1.0000
O217   O    0.56903   0.15574   0.86353   1.0000
V218   V    0.55549   0.38934   0.78221   1.0000
O219   O    0.53494   0.48597   0.78079   1.0000
O220   O    0.4549   0.41292   0.81218   1.0000
H221   H    0.56234   0.12725   0.8527   1.0000
O222   O    0.4579   0.29138   0.80954   1.0000
O223   O    0.4261   0.5553   0.75678   1.0000
V224   V    0.55843   0.25286   0.77596   1.0000
V226   V    0.41001   0.47953   0.74501   1.0000
H227   H    0.57548   0.1598   0.73178   1.0000
O228   O    0.54119   0.17467   0.76913   1.0000
V230   V    0.41455   0.34325   0.73613   1.0000
O231   O    0.51614   0.46604   0.69488   1.0000
O232   O    0.43767   0.2416   0.73998   1.0000
O233   O    0.40593   0.5755   0.65148   1.0000
O235   O    0.45144   0.4195   0.69122   1.0000
O236   O    0.52343   0.30521   0.68878   1.0000
H237   H    0.40533   0.60989   0.66046   1.0000
V238   V    0.55302   0.39372   0.63903   1.0000
O239   O    0.52235   0.50229   0.56811   1.0000
H240   H    0.47938   0.53205   0.58812   1.0000
H241   H    0.36198   0.58888   0.65026   1.0000
O242   O    0.4192   0.33685   0.6507   1.0000
S244   S    0.44972   0.26174   0.66535   1.0000
O245   O    0.52194   0.24245   0.63191   1.0000
O246   O    0.41615   0.23755   0.65461   1.0000
H247   H    0.51565   0.48475   0.54453   1.0000
O248   O    0.54298   0.39962   0.56093   1.0000
H249   H    0.54122   0.36563   0.55405   1.0000
H250   H    0.39316   0.5651   0.79715   1.0000
O251   O    0.12834   0.11886   0.87686   1.0000
H252   H    0.95074   0.23182   0.97571   1.0000
O253   O    0.99138   0.23183   0.93842   1.0000
S254   S    0.09223   0.12089   0.84484   1.0000
O255   O    0.09735   0.06003   0.84664   1.0000
H256   H    0.0032   0.19976   0.91762   1.0000
O257   O    0.01776   0.16519   0.86759   1.0000
O258   O    0.88739   0.32996   0.95692   1.0000
V260   V    0.96406   0.34051   0.87564   1.0000
H261   H    0.85991   0.3634   0.97854   1.0000
O262   O    0.92156   0.29971   0.84928   1.0000
H263   H    0.76053   0.36537   0.87217   1.0000
O264   O    0.78321   0.39033   0.86739   1.0000
V265   V    0.01229   0.24529   0.77576   1.0000
O266   O    0.10961   0.16766   0.77152   1.0000
O267   O    0.03798   0.291   0.80496   1.0000
H268   H    0.7545   0.43703   0.85753   1.0000
O269   O    0.91658   0.41594   0.80598   1.0000
O270   O    0.17928   0.22861   0.74692   1.0000
V271   V    0.87559   0.38937   0.7743   1.0000
V273   V    0.10388   0.33386   0.73696   1.0000
O275   O    0.79736   0.4931   0.77108   1.0000
H276   H    0.82084   0.52355   0.76083   1.0000
V277   V    0.96828   0.47807   0.73178   1.0000
O278   O    0.08766   0.29189   0.68765   1.0000
O279   O    0.86504   0.55516   0.74203   1.0000
O280   O    0.19715   0.33337   0.64055   1.0000
O282   O    0.04276   0.40774   0.68468   1.0000
O283   O    0.92693   0.45714   0.68595   1.0000
H284   H    0.23204   0.28985   0.64763   1.0000
V285   V    0.01352   0.3851   0.63415   1.0000
O286   O    0.12161   0.37118   0.5621   1.0000
H287   H    0.15162   0.36784   0.57894   1.0000
H288   H    0.21039   0.36466   0.63982   1.0000
O289   O    0.9579   0.56711   0.65021   1.0000
S291   S    0.88248   0.59855   0.66808   1.0000
O292   O    0.86108   0.58116   0.63508   1.0000
O293   O    0.85804   0.66723   0.66007   1.0000
H294   H    0.10719   0.41663   0.53213   1.0000
O295   O    0.01805   0.46385   0.55463   1.0000
H296   H    0.98338   0.50317   0.5395   1.0000
H297   H    0.19   0.21188   0.78655   1.0000
O298   O    0.12022   0.48067   0.23163   1.0000
H299   H    0.93552   0.5867   0.21605   1.0000
O300   O    0.97794   0.55074   0.20834   1.0000
S301   S    0.08741   0.45234   0.30031   1.0000
O302   O    0.09795   0.4576   0.34883   1.0000
H303   H    0.99216   0.52773   0.24822   1.0000
O304   O    0.01157   0.4763   0.31378   1.0000
O305   O    0.87493   0.57054   0.19643   1.0000
V307   V    0.9541   0.48861   0.18647   1.0000
H308   H    0.84631   0.58886   0.17124   1.0000
O309   O    0.91328   0.46047   0.29718   1.0000
H310   H    0.75713   0.48101   0.37412   1.0000
O311   O    0.77628   0.48044   0.32911   1.0000
V312   V    0.00554   0.38487   0.33126   1.0000
O313   O    0.10332   0.37767   0.31329   1.0000
O314   O    0.02878   0.41564   0.2306   1.0000
H315   H    0.74844   0.46881   0.32257   1.0000
O316   O    0.90868   0.41977   0.22572   1.0000
O317   O    0.17271   0.3527   0.2059   1.0000
V318   V    0.87035   0.38625   0.32496   1.0000
H319   H    0.14896   0.36102   0.25086   1.0000
V320   V    0.09518   0.3477   0.18633   1.0000
O322   O    0.79051   0.38549   0.30451   1.0000
H323   H    0.81379   0.37653   0.25906   1.0000
V324   V    0.96087   0.34646   0.1812   1.0000
O325   O    0.08153   0.2961   0.29225   1.0000
O326   O    0.85709   0.35849   0.20078   1.0000
O327   O    0.1894   0.24815   0.18711   1.0000
O329   O    0.03598   0.29687   0.22269   1.0000
O330   O    0.92179   0.29957   0.28942   1.0000
V332   V    0.00935   0.24491   0.32398   1.0000
O333   O    0.11733   0.16973   0.29797   1.0000
H334   H    0.14704   0.18826   0.25579   1.0000
H335   H    0.19991   0.2512   0.14195   1.0000
O336   O    0.95115   0.2663   0.18164   1.0000
S338   S    0.87591   0.28443   0.21088   1.0000
O339   O    0.85786   0.25007   0.28254   1.0000
O340   O    0.84936   0.2778   0.17612   1.0000
H341   H    0.10088   0.14571   0.29103   1.0000
O342   O    0.01494   0.1683   0.31237   1.0000
H343   H    0.98051   0.1605   0.3129   1.0000
H344   H    0.17943   0.39444   0.17534   1.0000
