data_MOF-808_cell
_audit_creation_date              2019-01-19
_audit_creation_method            'Materials Studio'
_symmetry_space_group_name_H-M    'P1'
_symmetry_Int_Tables_number       1
_symmetry_cell_setting            triclinic
loop_
_symmetry_equiv_pos_as_xyz
  x,y,z
_cell_length_a                   25.145
_cell_length_b                   25.082
_cell_length_c                   24.949
_cell_angle_alpha                60.32
_cell_angle_beta                 60.08
_cell_angle_gamma                58.92
loop_
_atom_site_label
_atom_site_type_symbol
_atom_site_fract_x
_atom_site_fract_y
_atom_site_fract_z
_atom_site_occupancy
O114   O    0.5737   0.33845   0.72749   1.0000
O145   O    0.36507   0.4036   0.80208   1.0000
O204   O    0.45618   0.50332   0.88614   1.0000
O206   O    0.43186   0.36195   0.94647   1.0000
S207   S    0.52435   0.4685   0.85509   1.0000
O208   O    0.5755   0.47509   0.85963   1.0000
O210   O    0.53694   0.39358   0.87593   1.0000
O211   O    0.42456   0.2592   0.96126   1.0000
Zr213   Zr    0.41425   0.33791   0.88067   1.0000
O215   O    0.5253   0.29682   0.85333   1.0000
O217   O    0.56903   0.15574   0.86353   1.0000
Zr218   Zr    0.55549   0.38934   0.78221   1.0000
O219   O    0.53494   0.48597   0.78079   1.0000
O220   O    0.4549   0.41292   0.81218   1.0000
O222   O    0.4579   0.29138   0.80954   1.0000
O223   O    0.4261   0.5553   0.75678   1.0000
Zr224   Zr    0.55843   0.25286   0.77596   1.0000
Zr226   Zr    0.41001   0.47953   0.74501   1.0000
O228   O    0.54119   0.17467   0.76913   1.0000
Zr230   Zr    0.41455   0.34325   0.73613   1.0000
O231   O    0.51614   0.46604   0.69488   1.0000
O232   O    0.43767   0.2416   0.73998   1.0000
O233   O    0.40593   0.5755   0.65148   1.0000
O235   O    0.45144   0.4195   0.69122   1.0000
O236   O    0.52343   0.30521   0.68878   1.0000
Zr238   Zr    0.55302   0.39372   0.63903   1.0000
O239   O    0.52235   0.50229   0.56811   1.0000
O242   O    0.4192   0.33685   0.6507   1.0000
S244   S    0.44972   0.26174   0.66535   1.0000
O245   O    0.52194   0.24245   0.63191   1.0000
O246   O    0.41615   0.23755   0.65461   1.0000
O248   O    0.54298   0.39962   0.56093   1.0000
H0   H   0.391781710878004   0.36551629976545436   0.9844775504803494   1.0
H1   H   0.3890891523698654   0.24526206283650182   0.9731882651114533   1.0
H2   H   0.6079430451504988   0.1454189756197804   0.8720265859446564   1.0
H3   H   0.38232276927231024   0.5873042143144098   0.7708325063727136   1.0
H4   H   0.584611815897442   0.14121919584396192   0.7573872961051277   1.0
H5   H   0.3674983821442031   0.5875282200619201   0.6411954915187817   1.0
H6   H   0.5533669925959125   0.520820019649703   0.5585667610688809   1.0
H7   H   0.5816718704174707   0.40935117761705403   0.5255490343843517   1.0
H8   H   0.621848698686522   0.32161655853688154   0.7116568084092605   1.0
H9   H   0.4387673207948991   0.4400229385898841   0.838775076918762   1.0
H10   H   0.44614307865322317   0.25200815471893495   0.8335339814245382   1.0
H11   H   0.4321716762473883   0.4487200038635684   0.656104029839859   1.0
H12   H   0.45720963571250245   0.3709466412686489   0.9586826775053318   1.0
H13   H   0.4522515742993113   0.5744180414095063   0.7557829414377597   1.0
H14   H   0.5147237544957624   0.15515066113170245   0.7712733718303314   1.0
H15   H   0.5196001816326007   0.39778193722808847   0.5404349265258906   1.0
H16   H   0.4465061809928188   0.2281499105439797   0.9941746999050567   1.0
H17   H   0.5567245990282439   0.11801547431717058   0.897896846129922   1.0
H18   H   0.42062233744120053   0.6114022670036233   0.6158755386035442   1.0
H19   H   0.495786021286449   0.5410634921211305   0.5416796148259222   1.0
H20   H   0.4129419604301558   0.5086704069395964   0.9202961508313656   1.0
H21   H   0.5652939319170418   0.24524790351682071   0.6023331429340907   1.0